Version 4.1
SHEET 1 2812 1028
WIRE 768 16 704 16
WIRE 832 16 768 16
WIRE 896 16 832 16
WIRE 944 16 896 16
WIRE 416 48 256 48
WIRE 512 48 416 48
WIRE 768 48 768 16
WIRE 832 48 832 16
WIRE 896 48 896 16
WIRE 1056 80 1056 48
WIRE 1472 80 1424 80
WIRE 1632 80 1632 64
WIRE 1632 80 1568 80
WIRE 1664 80 1632 80
WIRE 1776 80 1744 80
WIRE 1808 80 1776 80
WIRE 768 144 768 112
WIRE 896 144 896 112
WIRE 256 160 256 128
WIRE 256 160 224 160
WIRE 224 176 224 160
WIRE 768 176 704 176
WIRE 848 176 768 176
WIRE 896 176 848 176
WIRE 944 176 896 176
WIRE 1520 176 1520 144
WIRE 1776 176 1776 80
WIRE 256 208 256 160
WIRE 768 208 768 176
WIRE 896 208 896 176
WIRE 1056 208 1056 160
WIRE 416 288 256 288
WIRE 512 288 416 288
WIRE 1520 288 1520 256
WIRE 768 304 768 272
WIRE 896 304 896 272
WIRE 1056 304 1056 272
WIRE 1280 320 1248 320
WIRE 1392 320 1360 320
WIRE 1440 320 1392 320
WIRE 1488 320 1440 320
WIRE 1392 336 1392 320
WIRE 1440 336 1440 320
WIRE 1536 400 1536 352
WIRE 1392 416 1392 400
WIRE 1440 416 1440 400
WIRE 1504 448 1504 352
WIRE 1776 448 1776 256
WIRE 1776 448 1504 448
WIRE 1776 480 1776 448
WIRE 1776 592 1776 560
WIRE 240 736 208 736
WIRE 240 768 240 736
WIRE 240 864 240 832
FLAG 416 112 +D
FLAG 512 224 +D
FLAG 416 224 -D
FLAG 512 112 -D
FLAG 704 16 +D
FLAG 768 144 0
FLAG 896 144 0
FLAG 704 176 -D
FLAG 768 304 0
FLAG 896 304 0
FLAG 944 16 +vcc
FLAG 944 176 -vcc
FLAG 224 176 0
FLAG 240 864 0
FLAG 208 736 +vout
FLAG 832 48 LED
FLAG 1056 48 LED
FLAG 1056 304 0
FLAG 176 512 0
FLAG 304 512 0
FLAG 432 512 0
FLAG 176 432 2.1v
FLAG 304 432 +5v
FLAG 432 432 -5v
FLAG 944 448 +vref
FLAG 944 528 0
FLAG 1424 80 +vcc
FLAG 1536 400 +vref
FLAG 1632 64 V1+
FLAG 1808 80 +vout
FLAG 1776 592 0
FLAG 1248 320 +vcc
FLAG 1552 320 -5v
FLAG 1056 448 -vref
FLAG 1056 528 0
FLAG 1392 416 0
FLAG 1440 416 0
FLAG 848 256 0
SYMBOL diode 400 48 R0
WINDOW 0 -27 20 Left 2
WINDOW 3 -80 55 Left 2
SYMATTR InstName D1
SYMATTR Value 1N4001
SYMBOL diode 528 112 R180
WINDOW 0 -33 44 Left 2
WINDOW 3 -76 13 Left 2
SYMATTR InstName D2
SYMATTR Value 1N4001
SYMBOL diode 400 224 R0
WINDOW 0 -34 16 Left 2
WINDOW 3 -75 41 Left 2
SYMATTR InstName D3
SYMATTR Value 1N4001
SYMBOL diode 528 288 R180
WINDOW 0 -30 45 Left 2
WINDOW 3 -78 22 Left 2
SYMATTR InstName D4
SYMATTR Value 1N4001
SYMBOL cap 752 48 R0
SYMATTR InstName C1
SYMATTR Value 2200µ
SYMBOL cap 880 48 R0
SYMATTR InstName C2
SYMATTR Value 470µ
SYMBOL cap 752 208 R0
SYMATTR InstName C3
SYMATTR Value 2200µ
SYMBOL cap 880 208 R0
SYMATTR InstName C4
SYMATTR Value 470µ
SYMBOL voltage 256 32 R0
WINDOW 0 -63 55 Left 2
WINDOW 3 -72 -8 Left 2
WINDOW 123 0 0 Left 0
WINDOW 39 0 0 Left 0
SYMATTR InstName V1
SYMATTR Value SINE(0 {vpeak} {freq})
SYMBOL voltage 256 192 R0
WINDOW 0 -71 56 Left 2
WINDOW 3 -62 113 Left 2
WINDOW 123 0 0 Left 0
WINDOW 39 0 0 Left 0
SYMATTR InstName V2
SYMATTR Value SINE(0 {vpeak} {freq})
SYMBOL load 224 768 R0
WINDOW 123 0 0 Left 0
WINDOW 39 0 0 Left 0
SYMATTR InstName I1
SYMATTR Value 1
SYMBOL res 1040 64 R0
SYMATTR InstName R1
SYMATTR Value 3k3
SYMBOL LED 1040 208 R0
SYMATTR InstName D5
SYMBOL voltage 176 416 R0
WINDOW 123 0 0 Left 0
WINDOW 39 0 0 Left 0
SYMATTR InstName V3
SYMATTR Value 2.1
SYMBOL voltage 304 416 R0
WINDOW 123 0 0 Left 0
WINDOW 39 0 0 Left 0
SYMATTR InstName V4
SYMATTR Value 5
SYMBOL voltage 432 416 R0
WINDOW 123 0 0 Left 0
WINDOW 39 0 0 Left 0
SYMATTR InstName V5
SYMATTR Value -5
SYMBOL voltage 944 432 R0
WINDOW 123 0 0 Left 0
WINDOW 39 0 0 Left 0
SYMATTR InstName V6
SYMATTR Value 2.5
SYMBOL npn 1472 144 R270
WINDOW 0 43 36 VRight 2
WINDOW 3 -3 71 VRight 2
SYMATTR InstName Q1
SYMATTR Value TIP41C
SYMBOL OpAmps\\opamp2 1456 320 R270
WINDOW 0 -43 111 VRight 2
WINDOW 3 -25 110 VRight 2
SYMATTR InstName U1
SYMATTR Value TL071
SYMBOL res 1504 160 R0
WINDOW 0 -39 40 Left 2
WINDOW 3 -45 70 Left 2
SYMATTR InstName R2
SYMATTR Value 10
SYMBOL res 1760 64 R90
WINDOW 0 0 56 VBottom 2
WINDOW 3 32 56 VTop 2
SYMATTR InstName R3
SYMATTR Value 0.1
SYMBOL res 1760 160 R0
SYMATTR InstName R4
SYMATTR Value 5k
SYMBOL res 1760 464 R0
SYMATTR InstName R5
SYMATTR Value 1k
SYMBOL voltage 1056 432 R0
WINDOW 123 0 0 Left 0
WINDOW 39 0 0 Left 0
SYMATTR InstName V7
SYMATTR Value -2.5
SYMBOL cap 1424 336 R0
SYMATTR InstName C5
SYMATTR Value 0.1µ
SYMBOL cap 1376 336 R0
SYMATTR InstName C6
SYMATTR Value 10µ
SYMBOL res 832 160 R0
SYMATTR InstName R10
SYMATTR Value 10k
SYMBOL res 1376 304 R90
WINDOW 0 0 56 VBottom 2
WINDOW 3 32 56 VTop 2
SYMATTR InstName R6
SYMATTR Value 1µ
TEXT -336 40 Left 2 !.tran 0 {5*(1/freq)+5*(1/freq)} {5*(1/freq)}
TEXT -336 16 Left 2 !.param freq=60 vpeak=26.4
TEXT 120 -24 Left 2 ;Transformador de tap central e diodos retificadores
TEXT 696 -24 Left 2 ;Capacitor de filtro e led de indicação ON/OFF
TEXT -232 104 Left 2 !.inc TL071.lib
TEXT -232 80 Left 2 !.inc 1N4734A.lib
TEXT -232 128 Left 2 !.inc TIP41C.lib
TEXT -928 -64 Left 2 !.model 1N4001  D(Is=7.02767n Rs=0.0341512 N=1.80803 Tt=1e-07 Cjo=1e-11 Vj=0.7 M=0.5 Eg=1.05743 Xti=5 Fc=0.5 BV=100 Ibv=5e-08 Mfg=OnSemiconductor Type=Silicon)
TEXT 304 368 Left 2 ;Fontes Auxiliares
TEXT -232 152 Left 2 !.inc TIP42C.lib
TEXT 1368 -24 Left 2 ;Amplificador de tensão e corrente
TEXT -408 80 Left 2 !.option noopiter
RECTANGLE Normal 128 336 624 0 1
RECTANGLE Normal 992 336 672 0 1
RECTANGLE Normal 1136 336 992 0 1
RECTANGLE Normal 1136 640 128 384 1
RECTANGLE Normal 1872 640 1200 0 1
RECTANGLE Normal 2800 1024 1920 0 2
